OpenDSS_files/MyCircuit_Power_seq_kVA.txt

SYMMETRICAL COMPONENT POWERS BY CIRCUIT ELEMENT (first 3 phases)                                     Excess Power

Element          Term    P1(kW)   Q1(kvar)       P2         Q2      P0      Q0       P_Norm      Q_Norm     P_Emerg    Q_Emerg

"Vsource.SOURCE"  1       -0.0       -0.0        0.0        0.0    -0.0     0.0
"Vsource.SOURCE"  2        0.0        0.0        0.0        0.0     0.0     0.0
"Line.LINE12"     1        0.0        0.0        0.0        0.0     0.0     0.0        0.0        0.0        0.0        0.0
"Line.LINE12"     2        0.0        0.0        0.0        0.0     0.0     0.0
"Line.LINE23"     1        0.0        0.0        0.0        0.0     0.0     0.0        0.0        0.0        0.0        0.0
"Line.LINE23"     2        0.0        0.0        0.0        0.0     0.0     0.0
"Line.LINE24"     1        0.0        0.0        0.0        0.0     0.0     0.0        0.0        0.0        0.0        0.0
"Line.LINE24"     2        0.0        0.0        0.0        0.0     0.0     0.0
"Line.LINE34"     1        0.0        0.0        0.0        0.0     0.0     0.0        0.0        0.0        0.0        0.0
"Line.LINE34"     2        0.0        0.0        0.0        0.0     0.0     0.0
"Load.LOAD1"      1        0.0        0.0        0.0        0.0     0.0     0.0
"Load.LOAD2"      1        0.0        0.0        0.0        0.0     0.0     0.0
"Load.LOAD3"      1        0.0        0.0        0.0        0.0     0.0     0.0
"Load.LOAD4"      1        0.0        0.0        0.0        0.0     0.0     0.0

Total Circuit Losses =    0.0 +j    0.0
